# -*- Makefile -*-
#
# $Id: make_variables.in,v 1.16 2004/04/17 15:18:52 marcus Exp $
#
# Note: This template is actually used only for make_variables in the
# subdirectories; the one created in the build base dir is just an
# unwanted by-product.

@SET_MAKE@
prefix=@prefix@
exec_prefix=$(prefix)/bin
CC=@CC@
CPP=@CPP@
LDSHARED=@LDSHARED@
TMP_BUILDDIR=@BUILDDIR@
TMP_BINDIR=@BINDIR@
DEFINES=@CPPFLAGS@ @DEFS@
TMP_LIBDIR=$(TMP_BUILDDIR)/lib
PIKE_SRC_DIR=@PIKE_SRC_DIR@
BUILD_BASE=@BUILD_BASE@

DEFAULT_RUNPIKE=$(TMP_BUILDDIR)/pike -DNOT_INSTALLED -DPRECOMPILED_SEARCH_MORE -m$(TMP_BUILDDIR)/master.pike $(PIKEOPTS)
USE_PIKE=pike $(PIKEOPTS)
RUNPIKE=$(@RUNPIKE@)

OPTIMIZE=@OPTIMIZE@
INSTALL=@INSTALL@
WARN=@WARN@
OTHERFLAGS=@CFLAGS@ $(OSFLAGS) $(OPTIMIZE) $(WARN) $(PROFIL)
NOOPTFLAGS=@CFLAGS@ @CPPFLAGS@ $(OSFLAGS) $(WARN) $(PROFIL)
AR=@AR@
SRCDIR=@srcdir@
PMOD_TARGETS=@PMOD_TARGETS@
make_variables_in=@make_variables_in@
MODULE_PMOD_IN=@MODULE_PMOD_IN@
MODULE_WRAPPER_PREFIX=@MODULE_WRAPPER_PREFIX@

MODNAME=@MODULE_NAME@
MODPATH=@MODULE_PATH@
MODDIR=@MODULE_DIR@
